andes/tests/wecc_red_winter_80_v8-2.raw
0,   100.00,  32, 0, 1, 60.00     / PSS(R)E 32 RAW created by rawd32  FRI, MAR 10 2017  11:45
                               100.0

     1,'BC HYDRO    ', 100.0000,2,   1,   1,   1,1.03000, -41.6421
     2,'GRAND COULEE', 100.0000,3,   1,   1,   1,1.03000, -43.0000
     3,'COLSTRIP    ', 100.0000,2,   2,   1,   1,1.00000,   0.9838
     4,'FOUR CORNERS', 100.0000,2,   2,   1,   1,1.00000,  37.8980
     5,'PALO VERDE  ', 100.0000,2,   3,   1,   1,1.03000,   2.4665
     6,'SCE         ', 100.0000,2,   3,   1,   1,1.10000, -13.5892
     7,'MOSS LANDING', 100.0000,2,   4,   1,   1,1.03000, -37.5037
     8,'MALIN       ', 100.0000,1,   1,   1,   1,1.07944, -40.6338
     9,'HELENA      ', 100.0000,1,   2,   1,   1,1.06250, -30.7027
    10,'FLAGSTAFF   ', 100.0000,1,   3,   1,   1,1.04825,  10.7260
    11,'BAKERSFIELD ', 100.0000,1,   4,   1,   1,1.09481, -28.4888
 0 /End of Bus data, Begin Load data
     2,'1 ',1,   1,   1,  3300.000,     0.000,     0.000,     0.000,     0.000,     0.000,   1,1
     4,'1 ',1,   1,   1,  6000.000,     0.000,     0.000,     0.000,     0.000,     0.000,   1,1
     6,'1 ',1,   1,   1,  6800.000,     0.000,     0.000,     0.000,     0.000,     0.000,   1,1
     7,'1 ',1,   1,   1,  7200.000,     0.000,     0.000,     0.000,     0.000,     0.000,   1,1
     8,'1 ',1,   1,   1,   200.000,     0.000,     0.000,     0.000,     0.000,     0.000,   1,1
     9,'1 ',1,   1,   1,   600.000,     0.000,     0.000,     0.000,     0.000,     0.000,   1,1
    10,'1 ',1,   1,   1,   400.000,     0.000,     0.000,     0.000,     0.000,     0.000,   1,1
    11,'1 ',1,   1,   1,   700.000,     0.000,     0.000,     0.000,     0.000,     0.000,   1,1
 0 /End of Load data, Begin Fixed shunt data
     8,'1 ',1,     0.000,   900.000
     9,'1 ',1,     0.000,  1600.000
    10,'1 ',1,     0.000,  1100.000
    11,'1 ',1,     0.000,  1100.000
 0 /End of Fixed shunt data, Begin Generator data
     1,'1 ',   100.000,   -27.820, 99999.000, -4475.000,1.03000,     0, 17900.000, 0.00000E+0, 2.50000E-1, 0.00000E+0, 0.00000E+0,1.00000,1,  100.0,  9999.000, -9999.000,   1,1.0000
     2,'1 ',   740.510,  -268.620, 99999.000, -9700.000,1.03000,     0, 15520.000, 0.00000E+0, 2.50000E-1, 0.00000E+0, 0.00000E+0,1.00000,1,  100.0,  9999.000, -9999.000,   1,1.0000
     3,'1 ',  1400.000,   811.820, 99999.000, -1050.000,1.00000,     0, 27480.000, 0.00000E+0, 2.50000E-1, 0.00000E+0, 0.00000E+0,1.00000,1,  100.0,  9999.000, -9999.000,   1,1.0000
     4,'1 ', 10000.000,   617.770, 99999.000, -5250.000,1.00000,     0, 21000.000, 0.00000E+0, 2.50000E-1, 0.00000E+0, 0.00000E+0,1.00000,1,  100.0,  9999.000, -9999.000,   1,1.0000
     5,'1 ',   100.000,  -220.840, 99999.000, -3525.000,1.03000,     0,  5640.000, 0.00000E+0, 2.50000E-1, 0.00000E+0, 0.00000E+0,1.00000,1,  100.0,  9999.000, -9999.000,   1,1.0000
     6,'1 ',  7400.000,  1095.620, 99999.000, -3867.500,1.10000,     0, 23930.000, 0.00000E+0, 2.50000E-1, 0.00000E+0, 0.00000E+0,1.00000,1,  100.0,  9999.000, -9999.000,   1,1.0000
     7,'1 ',  5900.000, -1083.210, 99999.000, -2925.000,1.03000,     0, 11700.000, 0.00000E+0, 2.50000E-1, 0.00000E+0, 0.00000E+0,1.00000,1,  100.0,  9999.000, -9999.000,   1,1.0000
 0 /End of Generator data, Begin Branch data
     1,      2,'1 ', 6.76850E-3, 2.32570E-2,   0.00000,    0.00,    0.00,    0.00,  0.00000,  0.00000,  0.00000,  0.00000,1,1,   0.00,   1,1.0000
     2,      8,'1 ', 8.20080E-4, 1.23580E-2,   0.00000,    0.00,    0.00,    0.00,  0.00000,  0.00000,  0.00000,  0.00000,1,1,   0.00,   1,1.0000
     2,      9,'1 ', 8.38180E-4, 1.12630E-2,   0.00000,    0.00,    0.00,    0.00,  0.00000,  0.00000,  0.00000,  0.00000,1,1,   0.00,   1,1.0000
     3,      4,'1 ', 3.20400E-3, 3.95300E-2,   0.00000,    0.00,    0.00,    0.00,  0.00000,  0.00000,  0.00000,  0.00000,1,1,   0.00,   1,1.0000
     3,      9,'1 ', 2.07450E-3, 1.95900E-2,   0.00000,    0.00,    0.00,    0.00,  0.00000,  0.00000,  0.00000,  0.00000,1,1,   0.00,   1,1.0000
     4,     10,'1 ', 8.59600E-4, 1.96240E-2,   0.00000,    0.00,    0.00,    0.00,  0.00000,  0.00000,  0.00000,  0.00000,1,1,   0.00,   1,1.0000
     5,      6,'1 ', 4.87920E-4, 1.50150E-2,   0.00000,    0.00,    0.00,    0.00,  0.00000,  0.00000,  0.00000,  0.00000,1,1,   0.00,   1,1.0000
     5,     10,'1 ', 5.13070E-4, 7.83030E-3,   0.00000,    0.00,    0.00,    0.00,  0.00000,  0.00000,  0.00000,  0.00000,1,1,   0.00,   1,1.0000
     6,     11,'1 ', 7.61700E-4, 1.17110E-2,   0.00000,    0.00,    0.00,    0.00,  0.00000,  0.00000,  0.00000,  0.00000,1,1,   0.00,   1,1.0000
     7,      8,'1 ', 7.38610E-4, 9.35330E-3,   0.00000,    0.00,    0.00,    0.00,  0.00000,  0.00000,  0.00000,  0.00000,1,1,   0.00,   1,1.0000
     7,     11,'1 ', 2.74600E-4, 9.35510E-3,   0.00000,    0.00,    0.00,    0.00,  0.00000,  0.00000,  0.00000,  0.00000,1,1,   0.00,   1,1.0000
 0 /End of Branch data, Begin Transformer data
 0 /End of Transformer data, Begin Area interchange data
   1,     0,     0.000,     5.000,'AREA    1   '
   2,     0,     0.000,     5.000,'AREA    2   '
   3,     0,     0.000,     5.000,'AREA    3   '
   4,     0,     0.000,     5.000,'AREA    4   '
 0 /End of Area interchange data, Begin Two-terminal dc line data
 0 /End of Two-terminal dc line data, Begin VSC dc line data
 0 /End of VSC dc line data, Begin Impedance correction table data
 0 /End of Impedance correction table data, Begin Multi-terminal dc line data
 0 /End of Multi-terminal dc line data, Begin Multi-section line data
 0 /End of Multi-section line data, Begin Zone data
   1,'ZONE-001    '
 0 /End of Zone data, Begin Inter-area transfer data
 0 /End of Inter-area transfer data, Begin Owner data
   1,'OWNER1      '
 0 /End of Owner data, Begin FACTS device data
 0 /End of FACTS device data, Begin Switched shunt data
 0 /End of Switched shunt data, Begin GNE device data
 0 /End of GNE device data
Q
